[TITLE]
Global Water Full network - Peak Day (Avg * 1.9) 

[JUNCTIONS]
;ID              	Elev        	Demand      	Pattern         
 208             	8.1000      	5.700000    	3               	;
 209             	9.4000      	5.000000    	3               	;
 210             	8.9000      	5.400000    	2               	;
 211             	9.8000      	6.800000    	3               	;
 212             	8.2000      	5.400000    	2               	;
 213             	8.5000      	5.500000    	3               	;
 214             	8.1000      	5.700000    	3               	;
 215             	8.1000      	6.100000    	3               	;
 216             	9.5000      	5.200000    	3               	;
 217             	8.7000      	6.600000    	3               	;
 218             	9.1000      	5.400000    	3               	;
 219             	8.2000      	6.300000    	2               	;
 220             	9.2000      	5.200000    	3               	;
 221             	8.1000      	6.600000    	3               	;
 222             	9.8000      	6.500000    	2               	;
 223             	8.7000      	5.600000    	3               	;
 224             	9.1000      	6.800000    	3               	;
 225             	8.9000      	6.200000    	3               	;
 226             	8.7000      	6.900000    	2               	;
 227             	9.5000      	6.400000    	3               	;
 228             	8.3000      	6.100000    	3               	;
 229             	8.2000      	6.300000    	3               	;
 230             	9.3000      	5.400000    	3               	;
 231             	8.1000      	6.100000    	3               	;
 232             	9.3000      	5.800000    	3               	;
 233             	8.7000      	5.400000    	3               	;
 234             	8.2000      	6.700000    	2               	;
 235             	9.7000      	6.900000    	3               	;
 236             	8.3000      	5.100000    	4               	;
 237             	8.9000      	6.800000    	4               	;
 238             	9.6000      	6.500000    	4               	;
 239             	9.0000      	5.200000    	4               	;
 240             	8.8000      	5.600000    	4               	;
 241             	8.0000      	5.200000    	4               	;
 242             	8.4000      	5.800000    	4               	;
 243             	8.6000      	5.500000    	4               	;
 244             	9.0000      	5.900000    	4               	;
 245             	9.0000      	6.000000    	4               	;
 246             	8.6000      	5.100000    	4               	;
 247             	9.3000      	5.800000    	4               	;
 248             	8.9000      	5.300000    	4               	;
 249             	8.4000      	6.400000    	4               	;
 250             	9.6000      	5.000000    	4               	;
 251             	8.6000      	6.600000    	4               	;
 252             	9.1000      	5.800000    	4               	;
 253             	8.4000      	6.900000    	4               	;
 254             	8.6000      	5.300000    	4               	;
 255             	9.7000      	6.800000    	4               	;
 256             	9.8000      	5.200000    	4               	;
 257             	8.9000      	5.100000    	4               	;
 258             	9.3000      	6.500000    	4               	;
 259             	9.9000      	6.800000    	4               	;
 260             	8.4000      	6.000000    	4               	;
 261             	9.7000      	5.600000    	4               	;
 264             	9.3000      	5.600000    	4               	;
 265             	8.1000      	5.500000    	3               	;
 266             	8.4000      	6.200000    	4               	;
 267             	9.0000      	5.900000    	4               	;
 268             	9.7000      	6.300000    	4               	;
 269             	9.7000      	6.200000    	4               	;
 270             	8.6000      	6.000000    	4               	;
 272             	8.1000      	6.600000    	4               	;
 273             	9.5000      	5.700000    	4               	;
 274             	9.5000      	6.400000    	4               	;
 275             	9.1000      	6.200000    	4               	;
 276             	9.0000      	6.000000    	4               	;
 277             	8.1000      	5.400000    	4               	;
 278             	8.6000      	6.000000    	4               	;
 279             	8.7000      	6.100000    	4               	;
 280             	8.7000      	6.700000    	4               	;
 281             	9.7000      	5.700000    	4               	;
 282             	9.3000      	5.300000    	4               	;
 283             	8.5000      	5.900000    	4               	;
 284             	8.9000      	6.800000    	4               	;
 285             	8.1000      	5.800000    	4               	;
 286             	8.2000      	5.600000    	4               	;
 289             	8.6000      	6.000000    	4               	;
 290             	9.3000      	5.800000    	4               	;
 291             	8.0000      	6.100000    	4               	;
 292             	8.2000      	6.500000    	4               	;
 296             	9.0000      	6.900000    	4               	;
 297             	8.4000      	6.700000    	4               	;
 298             	8.8000      	5.300000    	4               	;
 299             	9.5000      	5.100000    	4               	;
 301             	8.2000      	6.000000    	4               	;
 302             	9.1000      	6.600000    	4               	;
 303             	9.4000      	5.000000    	4               	;
 304             	9.6000      	5.100000    	4               	;
 305             	8.8000      	6.900000    	4               	;
 306             	8.8000      	5.400000    	4               	;
 310             	8.1000      	6.400000    	4               	;
 311             	9.3000      	6.900000    	4               	;
 312             	9.8000      	6.800000    	4               	;
 313             	8.0000      	5.800000    	4               	;
 314             	8.7000      	5.700000    	4               	;
 315             	8.8000      	6.300000    	4               	;
 316             	8.8000      	5.300000    	4               	;
 317             	8.7000      	5.100000    	4               	;
 318             	9.0000      	6.700000    	4               	;
 319             	9.3000      	6.400000    	4               	;
 321             	8.9000      	6.600000    	4               	;
 322             	9.5000      	6.100000    	4               	;
 323             	8.0000      	5.900000    	4               	;
 324             	9.9000      	6.600000    	4               	;
 325             	9.8000      	5.300000    	4               	;
 326             	8.4000      	5.800000    	4               	;
 331             	8.4000      	5.900000    	4               	;
 332             	8.9000      	5.200000    	4               	;
 333             	9.5000      	5.500000    	4               	;
 334             	9.3000      	5.300000    	4               	;
 335             	8.3000      	5.700000    	4               	;
 336             	9.4000      	5.300000    	4               	;
 337             	8.8000      	5.000000    	4               	;
 338             	9.8000      	6.800000    	4               	;
 339             	8.0000      	6.600000    	4               	;
 340             	9.8000      	5.100000    	4               	;
 341             	8.9000      	6.800000    	4               	;
 342             	8.9000      	6.700000    	4               	;
 343             	9.2000      	5.200000    	4               	;
 344             	9.8000      	6.200000    	4               	;
 345             	9.8000      	6.900000    	4               	;
 346             	9.0000      	6.700000    	4               	;
 347             	9.8000      	6.100000    	4               	;
 349             	9.5000      	5.800000    	4               	;
 350             	9.6000      	6.100000    	4               	;
 351             	8.2000      	6.400000    	4               	;
 352             	9.2000      	6.500000    	4               	;
 353             	8.8000      	5.600000    	4               	;
 354             	8.2000      	5.600000    	4               	;
 355             	9.5000      	6.300000    	4               	;
 356             	8.9000      	5.200000    	4               	;
 357             	8.4000      	6.600000    	4               	;
 358             	8.1000      	6.800000    	4               	;
 359             	8.2000      	6.100000    	4               	;
 360             	8.1000      	6.900000    	4               	;
 361             	9.7000      	6.600000    	4               	;
 362             	9.2000      	5.900000    	4               	;
 363             	9.5000      	6.200000    	4               	;
 364             	8.0000      	6.000000    	4               	;
 365             	8.3000      	5.900000    	4               	;
 366             	8.1000      	5.800000    	4               	;
 367             	8.1000      	5.900000    	4               	;
 368             	9.5000      	5.300000    	4               	;
 369             	8.2000      	5.500000    	4               	;
 370             	8.2000      	5.500000    	4               	;
 371             	8.8000      	5.600000    	4               	;
 372             	9.7000      	6.700000    	4               	;
 373             	9.2000      	6.200000    	4               	;
 374             	8.9000      	6.400000    	4               	;
 375             	8.1000      	5.900000    	4               	;
 377             	9.6000      	5.900000    	4               	;
 381             	8.8000      	6.200000    	4               	;
 382             	8.5000      	6.500000    	4               	;
 383             	9.4000      	5.900000    	4               	;
 384             	8.1000      	6.200000    	4               	;
 385             	8.5000      	5.000000    	3               	;
 387             	9.8000      	6.300000    	3               	;
 388             	9.9000      	5.300000    	4               	;
 389             	9.9000      	6.600000    	4               	;
 390             	8.7000      	5.900000    	3               	;
 391             	8.9000      	6.700000    	3               	;
 392             	8.6000      	5.900000    	3               	;
 393             	9.3000      	6.500000    	4               	;
 394             	9.7000      	6.600000    	3               	;
 395             	8.6000      	5.500000    	3               	;
 396             	8.8000      	5.200000    	3               	;
 397             	9.5000      	6.400000    	3               	;
 398             	9.4000      	5.100000    	3               	;
 399             	9.6000      	6.100000    	3               	;
 400             	8.6000      	5.300000    	3               	;
 401             	9.3000      	6.500000    	3               	;
 402             	8.5000      	6.300000    	3               	;
 403             	9.2000      	5.800000    	3               	;
 404             	9.2000      	5.500000    	3               	;
 405             	9.3000      	6.600000    	3               	;
 406             	8.1000      	6.800000    	3               	;
 407             	8.6000      	5.200000    	3               	;
 408             	8.1000      	5.400000    	3               	;
 409             	9.6000      	5.200000    	3               	;
 410             	8.9000      	5.100000    	3               	;
 411             	9.5000      	6.000000    	3               	;
 412             	9.3000      	5.600000    	3               	;
 413             	8.4000      	6.900000    	3               	;
 414             	9.2000      	6.900000    	3               	;
 415             	9.3000      	5.400000    	3               	;
 416             	9.4000      	6.000000    	3               	;
 417             	8.5000      	5.900000    	3               	;
 418             	8.6000      	6.300000    	3               	;
 419             	9.4000      	5.200000    	3               	;
 420             	8.8000      	6.800000    	3               	;
 421             	8.7000      	5.500000    	3               	;
 422             	9.8000      	6.100000    	3               	;
 423             	8.2000      	5.500000    	3               	;
 424             	9.7000      	6.400000    	3               	;
 425             	9.4000      	5.400000    	3               	;
 426             	9.4000      	6.400000    	3               	;
 427             	9.2000      	6.900000    	3               	;
 428             	9.3000      	6.000000    	3               	;
 429             	8.7000      	6.700000    	3               	;
 430             	9.8000      	6.700000    	3               	;
 431             	9.3000      	6.000000    	3               	;
 433             	8.3000      	5.800000    	3               	;
 435             	9.2000      	5.500000    	3               	;
 436             	8.2000      	5.000000    	3               	;
 437             	9.3000      	5.700000    	3               	;
 438             	8.2000      	6.900000    	3               	;
 439             	8.7000      	5.500000    	3               	;
 440             	8.3000      	5.400000    	3               	;
 441             	8.3000      	6.200000    	3               	;
 442             	8.1000      	5.100000    	3               	;
 443             	8.3000      	6.200000    	3               	;
 444             	8.5000      	6.300000    	3               	;
 445             	8.5000      	6.100000    	3               	;
 446             	9.2000      	5.200000    	3               	;
 447             	8.2000      	5.600000    	3               	;
 448             	8.4000      	5.000000    	3               	;
 449             	8.7000      	5.000000    	3               	;
 450             	9.3000      	6.400000    	3               	;
 451             	9.0000      	6.000000    	3               	;
 452             	9.5000      	6.300000    	3               	;
 453             	9.1000      	5.000000    	3               	;
 454             	9.6000      	5.700000    	3               	;
 455             	8.5000      	6.000000    	3               	;
 456             	8.0000      	6.400000    	3               	;
 457             	9.5000      	5.400000    	3               	;
 458             	9.9000      	5.500000    	3               	;
 459             	9.6000      	6.400000    	3               	;
 460             	9.8000      	5.200000    	3               	;
 461             	9.1000      	5.600000    	3               	;
 462             	9.8000      	6.300000    	3               	;
 464             	9.1000      	5.400000    	3               	;
 465             	9.8000      	5.400000    	3               	;
 466             	9.9000      	6.200000    	3               	;
 467             	8.0000      	5.700000    	3               	;
 468             	8.0000      	5.600000    	3               	;
 469             	9.0000      	6.700000    	3               	;
 470             	9.0000      	6.500000    	3               	;
 471             	9.6000      	5.700000    	3               	;
 472             	8.3000      	6.800000    	3               	;
 473             	8.4000      	5.900000    	3               	;
 474             	8.2000      	5.600000    	3               	;
 475             	8.5000      	5.700000    	3               	;
 476             	9.7000      	6.400000    	3               	;
 477             	8.5000      	5.700000    	3               	;
 478             	8.9000      	5.800000    	3               	;
 479             	8.3000      	5.000000    	3               	;
 480             	8.2000      	5.200000    	3               	;
 481             	8.3000      	6.600000    	3               	;
 482             	9.7000      	5.100000    	3               	;
 483             	9.5000      	5.500000    	3               	;
 484             	8.4000      	5.000000    	3               	;
 485             	8.2000      	6.600000    	3               	;
 486             	9.0000      	5.600000    	3               	;
 487             	9.1000      	6.100000    	3               	;
 488             	9.1000      	5.700000    	3               	;
 489             	9.3000      	5.000000    	3               	;
 490             	9.0000      	5.400000    	3               	;
 491             	8.8000      	5.300000    	3               	;
 492             	8.0000      	6.100000    	3               	;
 493             	8.2000      	5.900000    	3               	;
 494             	8.0000      	6.300000    	3               	;
 495             	9.8000      	6.800000    	3               	;
 496             	8.5000      	5.700000    	3               	;
 497             	9.7000      	5.000000    	3               	;
 498             	9.8000      	6.900000    	3               	;
 499             	8.3000      	5.000000    	3               	;
 500             	9.7000      	5.400000    	3               	;
 501             	9.7000      	5.800000    	3               	;
 502             	9.3000      	5.700000    	3               	;
 503             	8.1000      	6.000000    	3               	;
 504             	8.0000      	5.800000    	3               	;
 505             	9.3000      	5.400000    	3               	;
 506             	8.5000      	5.000000    	3               	;
 507             	9.1000      	5.400000    	3               	;
 508             	9.5000      	6.600000    	3               	;
 509             	9.2000      	6.000000    	3               	;
 510             	8.3000      	5.500000    	3               	;
 511             	9.6000      	6.600000    	3               	;
 512             	8.6000      	6.700000    	3               	;
 513             	8.6000      	6.700000    	3               	;
 514             	9.7000      	6.100000    	3               	;
 515             	8.9000      	5.100000    	3               	;
 516             	9.6000      	5.200000    	3               	;
 517             	9.7000      	6.200000    	3               	;
 518             	9.7000      	6.600000    	3               	;
 519             	8.5000      	5.100000    	3               	;
 521             	8.3000      	5.900000    	3               	;
 530             	8.9000      	5.500000    	3               	;
 533             	9.9000      	6.200000    	3               	;
 535             	9.6000      	6.500000    	3               	;
 536             	9.3000      	5.200000    	3               	;
 537             	8.4000      	6.400000    	3               	;
 538             	9.4000      	6.200000    	3               	;
 539             	9.7000      	5.900000    	3               	;
 540             	9.2000      	5.300000    	3               	;
 541             	8.7000      	5.300000    	3               	;
 542             	9.1000      	6.500000    	3               	;
 543             	8.7000      	5.800000    	3               	;
 544             	9.5000      	6.800000    	3               	;
 545             	8.3000      	5.200000    	3               	;
 546             	9.4000      	6.100000    	3               	;
 547             	8.1000      	6.500000    	3               	;
 548             	9.9000      	5.500000    	3               	;
 549             	8.1000      	6.000000    	3               	;
 550             	8.6000      	6.400000    	3               	;
 551             	8.5000      	5.300000    	3               	;
 552             	9.0000      	6.800000    	3               	;
 554             	9.9000      	5.100000    	3               	;
 555             	9.3000      	6.400000    	3               	;
 556             	9.7000      	6.400000    	3               	;
 557             	9.6000      	6.300000    	3               	;
 558             	9.6000      	5.500000    	3               	;
 559             	8.2000      	5.800000    	3               	;
 560             	8.1000      	5.000000    	3               	;
 561             	9.3000      	5.100000    	3               	;
 562             	9.5000      	6.500000    	3               	;
 563             	8.2000      	5.200000    	3               	;
 564             	9.1000      	6.700000    	3               	;
 565             	8.4000      	6.800000    	3               	;
 566             	9.2000      	5.300000    	3               	;
 567             	9.6000      	6.300000    	3               	;
 568             	8.0000      	6.300000    	3               	;
 570             	9.5000      	6.200000    	3               	;
 571             	9.8000      	6.000000    	3               	;
 572             	9.7000      	6.200000    	3               	;
 573             	9.2000      	6.500000    	3               	;
 574             	8.9000      	6.100000    	3               	;
 575             	8.0000      	5.800000    	3               	;
 576             	8.5000      	6.000000    	3               	;
 577             	9.7000      	5.900000    	3               	;
 578             	9.0000      	5.500000    	3               	;
 579             	9.3000      	6.400000    	3               	;
 580             	9.1000      	5.000000    	3               	;
 581             	8.4000      	6.800000    	3               	;
 582             	9.5000      	6.900000    	3               	;
 583             	9.2000      	5.500000    	3               	;
 584             	8.4000      	5.100000    	3               	;
 585             	8.3000      	5.900000    	3               	;
 586             	9.5000      	5.800000    	3               	;
 587             	9.2000      	6.700000    	3               	;
 588             	8.9000      	6.600000    	3               	;
 589             	8.1000      	5.700000    	3               	;
 591             	8.7000      	5.100000    	3               	;
 592             	8.9000      	5.000000    	3               	;
 593             	9.3000      	6.400000    	3               	;
 594             	8.1000      	6.700000    	3               	;
 595             	9.5000      	5.300000    	3               	;
 596             	9.3000      	6.200000    	3               	;
 598             	8.4000      	5.100000    	3               	;
 599             	9.2000      	6.900000    	3               	;
 600             	9.0000      	5.800000    	4               	;
 601             	8.7000      	5.400000    	4               	;
 602             	9.5000      	5.600000    	4               	;
 603             	9.8000      	6.000000    	4               	;
 604             	8.7000      	5.700000    	4               	;
 605             	8.4000      	5.300000    	4               	;
 606             	8.1000      	5.300000    	3               	;
 607             	8.6000      	5.300000    	4               	;
 608             	9.0000      	6.100000    	4               	;
 609             	8.9000      	5.000000    	4               	;
 610             	8.4000      	5.200000    	4               	;
 611             	9.9000      	6.300000    	4               	;
 612             	9.1000      	5.400000    	4               	;
 613             	9.8000      	6.200000    	4               	;
 614             	9.0000      	5.500000    	4               	;
 615             	9.5000      	6.900000    	4               	;
 616             	8.3000      	5.200000    	4               	;
 617             	9.8000      	5.700000    	4               	;
 618             	8.4000      	5.800000    	4               	;
 619             	9.1000      	5.400000    	4               	;
 621             	9.3000      	6.500000    	4               	;
 622             	8.5000      	6.200000    	4               	;
 623             	8.6000      	6.800000    	4               	;
 624             	8.9000      	5.200000    	4               	;
 625             	9.9000      	5.500000    	4               	;
 626             	8.9000      	5.400000    	4               	;
 627             	8.5000      	5.000000    	4               	;
 628             	8.5000      	5.800000    	4               	;
 629             	9.8000      	6.000000    	4               	;
 630             	8.1000      	5.300000    	4               	;
 631             	9.2000      	6.200000    	4               	;
 632             	9.2000      	5.700000    	4               	;
 633             	9.0000      	5.300000    	4               	;
 634             	8.1000      	5.300000    	4               	;
 635             	8.3000      	5.700000    	4               	;
 636             	8.0000      	5.900000    	4               	;
 637             	9.5000      	5.500000    	4               	;
 638             	8.8000      	5.300000    	4               	;
 639             	8.7000      	5.800000    	4               	;
 640             	8.3000      	6.700000    	4               	;
 641             	8.9000      	5.300000    	4               	;
 642             	8.9000      	5.100000    	4               	;
 643             	8.8000      	5.200000    	4               	;
 644             	8.8000      	5.000000    	4               	;
 646             	8.1000      	6.800000    	4               	;
 647             	9.4000      	5.800000    	4               	;
 648             	8.6000      	6.000000    	4               	;
 649             	8.9000      	5.300000    	4               	;
 650             	9.0000      	5.000000    	4               	;
 651             	8.8000      	5.700000    	4               	;
 652             	9.6000      	5.300000    	4               	;
 653             	9.5000      	5.600000    	4               	;
 655             	8.5000      	6.800000    	4               	;
 657             	9.3000      	5.900000    	4               	;
 658             	8.4000      	5.800000    	4               	;
 659             	8.3000      	6.900000    	4               	;
 660             	9.7000      	5.600000    	3               	;
 661             	8.4000      	6.500000    	4               	;
 662             	9.8000      	5.600000    	4               	;
 663             	9.1000      	5.500000    	3               	;
 664             	9.5000      	5.100000    	3               	;
 665             	8.9000      	6.600000    	3               	;
 666             	8.4000      	6.500000    	3               	;
 667             	8.4000      	5.200000    	3               	;
 668             	9.5000      	6.300000    	3               	;
 669             	8.2000      	6.600000    	3               	;
 670             	8.8000      	6.200000    	3               	;
 671             	8.6000      	5.600000    	3               	;
 672             	9.3000      	5.900000    	3               	;
 673             	8.4000      	5.500000    	3               	;
 674             	8.6000      	6.200000    	3               	;
 675             	9.5000      	6.300000    	3               	;
 676             	8.5000      	6.600000    	3               	;
 677             	9.6000      	5.100000    	3               	;
 678             	9.4000      	6.400000    	3               	;
 679             	9.6000      	6.200000    	3               	;
 680             	9.6000      	6.800000    	3               	;
 681             	8.2000      	6.500000    	3               	;
 682             	9.5000      	6.100000    	3               	;
 683             	9.0000      	5.100000    	3               	;
 684             	8.5000      	6.100000    	3               	;
 685             	9.7000      	5.600000    	3               	;
 686             	9.0000      	6.000000    	3               	;
 688             	8.2000      	6.400000    	3               	;
 689             	9.3000      	6.300000    	3               	;
 690             	9.6000      	6.200000    	3               	;
 691             	8.8000      	5.200000    	3               	;
 692             	9.3000      	6.400000    	3               	;
 693             	8.3000      	6.400000    	3               	;
 694             	8.3000      	6.600000    	3               	;
 695             	8.8000      	5.400000    	3               	;
 696             	9.7000      	6.300000    	3               	;
 697             	8.9000      	5.800000    	3               	;
 698             	8.0000      	5.000000    	3               	;
 699             	9.8000      	6.800000    	3               	;
 700             	9.0000      	6.500000    	3               	;
 701             	8.1000      	5.400000    	3               	;
 702             	8.3000      	6.600000    	3               	;
 703             	8.3000      	5.900000    	3               	;
 704             	8.2000      	5.100000    	3               	;
 705             	8.9000      	5.800000    	3               	;
 706             	8.2000      	6.300000    	3               	;
 707             	9.4000      	5.000000    	3               	;
 708             	8.2000      	5.300000    	3               	;
 709             	9.1000      	5.900000    	3               	;
 710             	9.8000      	6.900000    	3               	;
 711             	8.8000      	6.900000    	3               	;
 712             	9.1000      	5.300000    	3               	;
 713             	8.5000      	5.100000    	3               	;
 714             	8.4000      	6.200000    	3               	;
 715             	8.5000      	6.300000    	3               	;
 716             	9.8000      	5.900000    	3               	;
 717             	8.2000      	6.800000    	3               	;
 718             	9.7000      	6.000000    	3               	;
 719             	8.1000      	6.400000    	3               	;
 720             	8.8000      	5.100000    	3               	;